farao-balances-adjustment/src/test/resources/20181116_1130_DC.uct
##C 2007.05.01
*******************************************************
	Created by Transmission Network Analyzer_FORsee (TNA_FORsee). Made by EKC Belgrade & DMS Group Novi Sad, 2012.
*******************************************************

##N
##ZSI
LZLATO51 248          0 0    118  13.561   1.092       0       0       0       0       0       0     0       0       0       0  
LZIRI 52 107          0 0 122.56   8.465   3.384       0       0       0       0       0       0     0       0       0       0  
LZIRI 51 108          0 0 122.77       0       0       0       0       0       0       0       0     0       0       0       0  
LZELEZ52 246          0 0 117.93    5.59  -1.411       0       0       0       0       0       0     0       0       0       0  
LZELEZ51 296          0 0 117.95   -3.28   0.518       0       0       0       0       0       0     0       0       0       0  
LZEL.R51 297          0 0 120.34   7.065    1.33       0       0       0       0       0       0     0       0       0       0  
LZALEC51 292          0 0 120.38  15.521   4.535       0       0       0       0       0       0     0       0       0       0  
LZALE 51 112          0 0  117.9  30.954   5.184       0       0       0       0       0       0     0       0       0       0  
LVUZED52 273          0 0  120.8       0       0       0       0       0       0       0       0     0       0       0       0  
LVUZED51 272          0 0  120.8   11.03   1.035       0       0       0       0       0       0     0       0       0       0  
LVSS_V52 232          0 0 120.72    0.01       0       0       0       0       0       0       0     0       0       0       0  
LVSS_V51 236          0 0 120.72    0.01       0       0       0       0       0       0       0     0       0       0       0  
LVSS_T51 241          0 0 119.16    0.02       0       0       0       0       0       0       0     0       0       0       0  
LVSS_P51 233          0 0 120.47    0.02       0       0       0       0       0       0       0     0       0       0       0  
LVSS_H51 234          0 0 117.61    0.04       0       0       0       0       0       0       0     0       0       0       0  
LVSS_F52 237          0 0 120.83    0.06       0       0       0       0       0       0       0     0       0       0       0  
LVSS_F51 238          0 0 120.83    0.06       0       0       0       0       0       0       0     0       0       0       0  
LVSS_B51 235          0 0 118.31   0.389   0.806       0       0       0       0       0       0     0       0       0       0  
LVRTOJ51 7            0 0 123.38  28.546   3.888       0       0       0       0       0       0     0       0       0       0  
LVRHNI51 117          0 0 117.07  13.152   2.526       0       0       0       0       0       0     0       0       0       0  
LVIC  51 123          0 0 117.52 45.8779   7.391       0       0       0       0       0       0     0       0       0       0  
LVELEN52 264          0 0 119.91       0       0       0       0       0       0       0       0     0       0       0       0  
LVELEN51 263          0 0 119.81   26.93    6.85       0       0       0       0       0       0     0       0       0       0  
LTRZIC51 245          0 0 117.97   4.257  -0.491       0       0       0       0       0       0     0       0       0       0  
LTRNOV51 269          0 0  119.6      19   5.464       0       0       0       0       0       0     0       0       0       0  
LTREBN51 90           0 0  117.6  13.714   0.182       0       0       0       0       0       0     0       0       0       0  
LTRBOV72 98           0 0      0       0       0       0       0       0       0       0       0     0       0       0       0  
LTRBOV71 96           0 0      0       0       0       0       0       0       0       0       0     0       0       0       0  
LTRBOV53 95           0 0    110       0       0       0       0       0       0       0       0     0       0       0       0  
LTRBOV52 94           0 0    110       0       0       0       0       0       0       0       0     0       0       0       0  
LTRBOV51 92           0 0    110       0       0       0       0       0       0       0       0     0       0       0       0  
LTOLMI51 12           0 0 123.58   3.805   0.737       0       0       0       0       0       0     0       0       0       0  
LTEZNO51 46           0 0 120.17  -0.399   7.677       0       0       0       0       0       0     0       0       0       0  
LTETRB71 97           0 0      0       0       0       0       0       0       0       0       0     0       0       0       0  
LTETRB51 93           0 0 119.03 9.71000   1.545       0       0       0       0       0       0     0       0       0       0  
LTETOL51 179          0 0    110       0       0       0       0       0       0       0       0     0       0       0       0  
LTESOS75 192          0 0 20.858  57.491  34.424  -509.1  94.174    -250    -618 264.549 -434.54     0       0       0       0  
LTESOS74 191          0 0 20.761 -57.425   8.306 -78.629 34.6189    -140  -345.1     121    -261     0       0       0       0  
LTESOS73 189          0 0      0       0       0       0       0       0       0       0       0     0       0       0       0  
LTESOS72 188          0 0      0       0       0       0       0       0       0       0       0     0       0       0       0  
LTESOS71 187          0 0      0       0       0       0       0       0       0       0       0     0       0       0       0  
LTESOS51 183          0 0 119.91  17.728  11.537       0       0       0       0       0       0     0       0       0       0  
LTESOS21 190          0 0  228.2     0.3       0       0       0       0       0       0       0     0       0       0       0  
LTE-TO73 182          0 0 10.859   2.986   2.872  -43.98  -7.667       0     -50    8.64  -40.49     0       0       0       0  
LTE-TO72 181          0 0      0       0       0       0       0       0       0       0       0     0       0       0       0  
LTE-TO71 180          0 0  10.83   0.753   1.797  -21.26  -3.919       0     -50   22.77 -34.689     0       0       0       0  
LTE-TO51 178          0 0 118.08 6.66400   3.782       0       0       0       0       0       0     0       0       0       0  
LSTORE51 302          0 0 119.87   2.166   1.056       0       0       0       0       0       0     0       0       0       0  
LSOSTA53 186          0 0    110       0       0       0       0       0       0       0       0     0       0       0       0  
LSOSTA52 185          0 0    110       0       0       0       0       0       0       0       0     0       0       0       0  
LSOSTA51 184          0 0    110       0       0       0       0       0       0       0       0     0       0       0       0  
LSOSTA11 193          0 0  410.3    0.57       0       0       0       0       0       0       0     0       0       0       0  
LSLKON52 53           0 0 119.63       0       0       0       0       0       0       0       0     0       0       0       0  
LSLKON51 52           0 0 119.54       0       0       0       0       0       0       0       0     0       0       0       0  
LSLADK51 49           0 0 120.09  19.048    3.64       0       0       0       0       0       0     0       0       0       0  
LSL.KO51 51           0 0 119.12   27.61   9.576       0       0       0       0       0       0     0       0       0       0  
LSL.GR51 262          0 0 120.13   5.512   0.326       0       0       0       0       0       0     0       0       0       0  
LSL.BI51 76           0 0 119.53  32.591   4.883       0       0       0       0       0       0     0       0       0       0  
LSKLOK51 242          0 0 117.77  29.736    2.73       0       0       0       0       0       0     0       0       0       0  
LSISKA51 114          0 0 117.86   31.32   5.196       0       0       0       0       0       0     0       0       0       0  
LSEZAN51 13           0 0 124.43  13.679   1.647       0       0       0       0       0       0     0       0       0       0  
LSEVNI52 260          0 0    110       0       0       0       0       0       0       0       0     0       0       0       0  
LSEVNI51 259          0 0 119.05  17.534   4.004       0       0       0       0       0       0     0       0       0       0  
LSENTJ51 267          0 0 121.19  10.964   1.854       0       0       0       0       0       0     0       0       0       0  
LSELCE52 291          0 0    110       0       0       0       0       0       0       0       0     0       0       0       0  
LSELCE51 290          0 0 119.66   11.21   2.886       0       0       0       0       0       0     0       0       0       0  
LSALON51 3            0 0 123.45  18.464   1.869       0       0       0       0       0       0     0       0       0       0  
LRUSE 51 62           0 0 120.71  12.326   1.458       0       0       0       0       0       0     0       0       0       0  
LROGSL51 266          0 0 122.34  12.314   -0.81       0       0       0       0       0       0     0       0       0       0  
LRIBNI51 88           0 0 116.81  10.843   2.171       0       0       0       0       0       0     0       0       0       0  
LRAVNE52 298          0 0 120.26       0       0       0       0       0       0       0       0     0       0       0       0  
LRAVNE51 274          0 0 120.26  31.736    0.19       0       0       0       0       0       0     0       0       0       0  
LRADVA51 50           0 0 120.42  10.211   3.536       0       0       0       0       0       0     0       0       0       0  
LRADOV51 244          0 0 117.85   10.37   1.734       0       0       0       0       0       0     0       0       0       0  
LRADEN51 58           0 0 120.23  15.248   1.896       0       0       0       0       0       0     0       0       0       0  
LRADEC51 104          0 0 119.12    9.64   3.078       0       0       0       0       0       0     0       0       0       0  
LRACE 51 59           0 0 120.01  11.666   0.539       0       0       0       0       0       0     0       0       0       0  
LPTUJ 51 64           0 0 122.77 18.2099   2.914       0       0       0       0       0       0     0       0       0       0  
LPRIMS51 247          0 0 117.98  13.826  -2.616       0       0       0       0       0       0     0       0       0       0  
LPOTOS51 91           0 0 118.93 18.7359  -3.236       0       0       0       0       0       0     0       0       0       0  
LPOSTO51 1            0 0 124.53  14.002   3.292       0       0       0       0       0       0     0       0       0       0  
LPOLJE51 124          0 0 118.11 38.3149   5.391       0       0       0       0       0       0     0       0       0       0  
LPODVE51 74           0 0 121.03    1.72   0.586       0       0       0       0       0       0     0       0       0       0  
LPODLO73 211          0 0 31.297       0       0       0       0       0       0       0       0     0       0       0       0  
LPODLO72 210          0 0 11.069       0       0       0       0       0       0       0       0     0       0       0       0  
LPODLO71 209          0 0 11.066       0       0       0       0       0       0       0       0     0       0       0       0  
LPODLO53 271          0 0 120.47       0       0       0       0       0       0       0       0     0       0       0       0  
LPODLO52 270          0 0 120.49   8.073    1.13       0       0       0       0       0       0     0       0       0       0  
LPODLO51 207          0 0 120.49    0.32       0       0       0       0       0       0       0     0       0       0       0  
LPODLO21 208          0 0 228.87    2.21       0       0       0       0       0       0       0     0       0       0       0  
LPODLO11 206          0 0 411.69    2.18       0       0       0       0       0       0       0     0       0       0       0  
LPLAVE73 39           0 0      0       0       0       0       0       0       0       0       0     0       0       0       0  
LPLAVE72 38           0 0 11.307    0.03       0   -6.74   -3.24       0     -19 18.6299  -18.54     0       0       0       0  
LPLAVE71 37           0 0  11.85    0.04       0   -0.02  -0.635     -12     -24    16.5 -20.959     0       0       0       0  
LPLAVE52 36           0 0 123.58       0       0       0       0       0       0       0       0     0       0       0       0  
LPLAVE51 35           0 0 123.57   5.153   0.009       0       0       0       0       0       0     0       0       0       0  
LPIVKA51 2            0 0 124.84 9.05800   1.456       0       0       0       0       0       0     0       0       0       0  
LPEKRE71 73           0 0      0       0       0       0       0       0       0       0       0     0       0       0       0  
LPEKRE51 77           0 0 120.64 0.93299  -0.527       0       0       0       0       0       0     0       0       0       0  
LORMOZ51 45           0 0 122.15   5.317   1.867       0       0       0       0       0       0     0       0       0       0  
LOKROG72 223          0 0 11.077       0       0       0       0       0       0       0       0     0       0       0       0  
LOKROG71 222          0 0 32.534       0       0       0       0       0       0       0       0     0       0       0       0  
LOKROG51 220          0 0 118.06 0.68999       0       0       0       0       0       0       0     0       0       0       0  
LOKROG11 221          0 0 416.82    0.81       0       0       0       0       0       0       0     0       0       0       0  
LNEK  71 218          0 0 21.883   12.62 -15.413 -728.89  20.941    -266    -727     150    -250     0       0       0       0  
LNEK  51 219          0 0  119.6   1.031  -0.957       0       0       0       0       0       0     0       0       0       0  
LNEK  13 217          0 0 419.72    0.02       0       0       0       0       0       0       0     0       0       0       0  
LNEK  12 216          0 0 419.73    0.18       0       0       0       0       0       0       0     0       0       0       0  
LNEK  11 215          0 0 419.72    0.19       0       0       0       0       0       0       0     0       0       0       0  
LMURSO51 61           0 0 120.57  21.569  -0.972       0       0       0       0       0       0     0       0       0       0  
LMOZIR51 265          0 0 119.98    19.2   2.154       0       0       0       0       0       0     0       0       0       0  
LMOSTE72 256          0 0      0       0       0       0       0       0       0       0       0     0       0       0       0  
LMOSTE71 255          0 0 6.4358   0.048   -0.13  -10.08  -3.076      -8     -14   11.49  -12.65     0       0       0       0  
LMOSTE52 254          0 0    110       0       0       0       0       0       0       0       0     0       0       0       0  
LMOSTE51 253          0 0 117.92  10.105   0.107       0       0       0       0       0       0     0       0       0       0  
LMETLI51 102          0 0 117.02   5.464   1.326       0       0       0       0       0       0     0       0       0       0  
LMENGE51 132          0 0 117.11 19.5639   3.996       0       0       0       0       0       0     0       0       0       0  
LMELJE51 44           0 0 120.54  22.652  11.139       0       0       0       0       0       0     0       0       0       0  
LMEDVO72 251          0 0 6.4175    0.04       0  -11.79  -2.002      -3     -13    6.75   -8.23     0       0       0       0  
LMEDVO71 250          0 0 6.3491       0       0       0       0       0       0       0       0     0       0       0       0  
LMEDVO51 249          0 0 117.92    13.6   3.634       0       0       0       0       0       0     0       0       0       0  
LMAVCI71 121          0 0      0       0       0       0       0       0       0       0       0     0       0       0       0  
LMAVCI51 119          0 0    110       0       0       0       0       0       0       0       0     0       0       0       0  
LMARIB72 70           0 0 33.044       0       0       0       0       0       0       0       0     0       0       0       0  
LMARIB71 69           0 0  33.04       0       0       0       0       0       0       0       0     0       0       0       0  
LMARIB52 68           0 0    110       0       0       0       0       0       0       0       0     0       0       0       0  
LMARIB51 67           0 0 120.59    1.61       0       0       0       0       0       0       0     0       0       0       0  
LMARIB11 66           0 0 417.29    0.99       0       0       0       0       0       0       0     0       0       0       0  
LMACKO51 75           0 0 120.46   2.423    1.98       0       0       0       0       0       0     0       0       0       0  
LLUCIJ51 4            0 0 124.45  17.357   -0.86       0       0       0       0       0       0     0       0       0       0  
LLOGAT51 115          0 0 116.91  13.902    4.12       0       0       0       0       0       0     0       0       0       0  
LLOCNA51 133          0 0 117.17  10.085    0.27       0       0       0       0       0       0     0       0       0       0  
LLJUTO51 60           0 0 121.57 8.03700   0.855       0       0       0       0       0       0     0       0       0       0  
LLITOS51 122          0 0 117.86  18.462   4.201       0       0       0       0       0       0     0       0       0       0  
LLITIJ51 131          0 0 118.46  13.224   3.168       0       0       0       0       0       0     0       0       0       0  
LLIPA 51 303          0 0 119.87  11.034  -4.544       0       0       0       0       0       0     0       0       0       0  
LLENDA51 47           0 0 120.96  16.527   2.842       0       0       0       0       0       0     0       0       0       0  
LLENAR51 48           0 0 120.39   8.857   1.776       0       0       0       0       0       0     0       0       0       0  
LLAVA 51 268          0 0 120.53   10.92   2.958       0       0       0       0       0       0     0       0       0       0  
LLASKO52 289          0 0 119.57   7.163   0.916       0       0       0       0       0       0     0       0       0       0  
LLASKO51 288          0 0    110       0       0       0       0       0       0       0       0     0       0       0       0  
LLABOR51 252          0 0 117.96 26.0669   2.501       0       0       0       0       0       0     0       0       0       0  
LKRSKO72 139          0 0 10.956       0       0       0       0       0       0       0       0     0       0       0       0  
LKRSKO71 138          0 0 11.224       0       0       0       0       0       0       0       0     0       0       0       0  
LKRSKO52 261          0 0 119.53  30.594   6.075       0       0       0       0       0       0     0       0       0       0  
LKRSKO51 136          0 0  119.6    1.03       0       0       0       0       0       0       0     0       0       0       0  
LKRSKO11 137          0 0 419.71    1.37       0       0       0       0       0       0       0     0       0       0       0  
LKORUN53 301          0 0 120.72       0       0       0       0       0       0       0       0     0       0       0       0  
LKORUN52 300          0 0 120.72       0       0       0       0       0       0       0       0     0       0       0       0  
LKORUN51 299          0 0 120.82   0.724    0.32       0       0       0       0       0       0     0       0       0       0  
LKOR.V51 63           0 0  120.6   8.091  -1.286       0       0       0       0       0       0     0       0       0       0  
LKOPER51 6            0 0  124.6  32.369   3.533       0       0       0       0       0       0     0       0       0       0  
LKOCEV51 89           0 0 116.71  13.646   1.038       0       0       0       0       0       0     0       0       0       0  
LKLECE72 128          0 0  10.82       0       0       0       0       0       0       0       0     0       0       0       0  
LKLECE71 127          0 0  10.82       0       0       0       0       0       0       0       0     0       0       0       0  
LKLECE51 125          0 0 117.91   3.705   0.835       0       0       0       0       0       0     0       0       0       0  
LKLECE21 126          0 0 229.72 0.69999       0       0       0       0       0       0       0     0       0       0       0  
LKIDRI71 305          0 0      0       0       0       0       0       0       0       0       0     0       0       0       0  
LKIDRI51 304          0 0 123.38 118.325  10.884       0       0       0       0       0       0     0       0       0       0  
LKARBI52 177          0 0 120.83       0       0       0       0       0       0       0       0     0       0       0       0  
LKARBI51 176          0 0 120.82       0       0       0       0       0       0       0       0     0       0       0       0  
LKAMNI51 105          0 0 116.92  38.712  -0.672       0       0       0       0       0       0     0       0       0       0  
LJESEN52 295          0 0 117.95       0       0       0       0       0       0       0       0     0       0       0       0  
LJESEN51 243          0 0 117.91   9.604  -1.848       0       0       0       0       0       0     0       0       0       0  
LJEKLA52 294          0 0 117.84 19.4599   4.762       0       0       0       0       0       0     0       0       0       0  
LJEKLA51 293          0 0 118.09   1.111  -0.131       0       0       0       0       0       0     0       0       0       0  
LIL.BI51 9            0 0 125.83  14.186   1.731       0       0       0       0       0       0     0       0       0       0  
LIDRIJ52 19           0 0    110       0       0       0       0       0       0       0       0     0       0       0       0  
LIDRIJ51 18           0 0 122.76  10.189   3.162       0       0       0       0       0       0     0       0       0       0  
LHUDO 51 135          0 0 117.78   1.202   0.491       0       0       0       0       0       0     0       0       0       0  
LHRAST51 134          0 0 119.16       0       0       0       0       0       0       0       0     0       0       0       0  
LHEZLA72 172          0 0 10.899    0.12       0   -24.9  -0.158       0   -68.3   45.88  -57.02     0       0       0       0  
LHEZLA71 171          0 0   10.9    0.19       0  -44.45  -0.132       0   -68.3 40.2099  -52.02     0       0       0       0  
LHEZLA52 170          0 0 123.85    0.11       0       0       0       0       0       0       0     0       0       0       0  
LHEZLA51 169          0 0 123.76    0.03       0       0       0       0       0       0       0     0       0       0       0  
LHEVUZ73 156          0 0 10.851    0.04       0  -13.57  -0.213       0     -21   20.92  -20.17     0       0       0       0  
LHEVUZ72 155          0 0 10.852    0.04       0  -12.37  -0.239       0     -21 21.4599  -20.41     0       0       0       0  
LHEVUZ71 154          0 0 10.854    0.04       0  -12.48  -0.278       0     -21   21.42 -20.379     0       0       0       0  
LHEVUZ51 153          0 0  120.8    0.21       0       0       0       0       0       0       0     0       0       0       0  
LHEVUH73 160          0 0   10.5    0.13       0  -19.11  -0.926       0     -27 26.7199  -21.76     0       0       0       0  
LHEVUH72 159          0 0 10.518    0.13       0  -18.16  -1.304       0     -27 27.4699 -22.139     0       0       0       0  
LHEVUH71 158          0 0 10.507    0.13       0  -18.82  -1.056       0     -27   26.95  -21.87     0       0       0       0  
LHEVUH51 157          0 0 121.01    0.14       0       0       0       0       0       0       0     0       0       0       0  
LHEVRH71 142          0 0 6.3443    0.04       0  -11.61  -1.448       0     -26   14.79  -17.93     0       0       0       0  
LHEVRH51 143          0 0 119.37    0.04       0       0       0       0       0       0       0     0       0       0       0  
LHESOL71 205          0 0 6.7715    0.02       0    -5.7  -0.424       0   -10.8    9.99   -9.36     0       0       0       0  
LHESOL51 204          0 0  123.5       0       0       0       0       0       0       0       0     0       0       0       0  
LHEOZB73 164          0 0 10.894    0.05       0 -19.219  -1.046       0     -27   26.62 -21.709     0       0       0       0  
LHEOZB72 163          0 0 10.875    0.05       0 -18.799  -0.515       0   -27.1 26.9599 -21.879     0       0       0       0  
LHEOZB71 162          0 0 10.899    0.06       0 -19.809  -1.208       0   -27.1   26.15  -21.48     0       0       0       0  
LHEOZB51 161          0 0 121.08    0.13       0       0       0       0       0       0       0     0       0       0       0  
LHEMBO72 43           0 0 10.839    0.05       0  -15.99  -0.391       0   -20.5   19.86  -19.62     0       0       0       0  
LHEMBO71 42           0 0  10.84    0.08       0 -32.639  -0.636       0     -41   39.47 -39.009     0       0       0       0  
LHEMBO52 41           0 0 120.67       0       0       0       0       0       0       0       0     0       0       0       0  
LHEMBO51 40           0 0 120.69    0.02       0       0       0       0       0       0       0     0       0       0       0  
LHEMAV71 120          0 0 10.568    0.05       0  -10.48  -3.085       0     -20   15.75  -16.83     0       0       0       0  
LHEMAV51 118          0 0 118.05    0.05       0       0       0       0       0       0       0     0       0       0       0  
LHEKRS71 195          0 0 6.8474    0.04       0  -14.67   0.046      -2   -28.1   29.18   -22.7     0       0       0       0  
LHEKRS51 194          0 0 119.53    0.01       0       0       0       0       0       0       0     0       0       0       0  
LHEFOR72 175          0 0 10.667    0.25       0  -46.95  -1.869       0 -59.099   11.08  -56.65     0       0       0       0  
LHEFOR71 174          0 0  10.67    0.23       0 -43.029  -1.993   -13.5 -59.099   12.18  -59.95     0       0       0       0  
LHEFOR51 173          0 0  122.6    0.35       0       0       0       0       0       0       0     0       0       0       0  
LHEFAL73 168          0 0   10.5    0.09       0  -15.94   0.097      -6 -18.299 16.5599  -17.35     0       0       0       0  
LHEFAL72 167          0 0 10.871    0.09       0 -17.219  -0.129      -7   -21.4   10.55  -15.56     0       0       0       0  
LHEFAL71 166          0 0 10.861    0.08       0  -15.89   0.153      -7   -21.4   10.76  -15.82     0       0       0       0  
LHEFAL51 165          0 0 120.95    0.08       0       0       0       0       0       0       0     0       0       0       0  
LHEDRA72 152          0 0      0       0       0       0       0       0       0       0       0     0       0       0       0  
LHEDRA71 151          0 0 6.4823    0.06       0  -20.75   0.606      -9   -25.5 28.4599 -27.209     0       0       0       0  
LHEDRA52 150          0 0 120.52    0.07       0       0       0       0       0       0       0     0       0       0       0  
LHEDRA51 149          0 0 120.43    0.21       0       0       0       0       0       0       0     0       0       0       0  
LHEDOB74 203          0 0      0       0       0       0       0       0       0       0       0     0       0       0       0  
LHEDOB73 202          0 0      0       0       0       0       0       0       0       0       0     0       0       0       0  
LHEDOB72 201          0 0      0       0       0       0       0       0       0       0       0     0       0       0       0  
LHEDOB71 200          0 0 11.522    0.06       0  -12.37 -17.136     -12     -40      41 -39.139     0       0       0       0  
LHEDOB51 196          0 0 123.82    0.01       0       0       0       0       0       0       0     0       0       0       0  
LHEBRE71 240          0 0 10.771    0.05       0  -21.91  -1.509      -4   -42.7   36.59 -31.129     0       0       0       0  
LHEBRE51 239          0 0 119.72       0       0       0       0       0       0       0       0     0       0       0       0  
LHEBOS71 146          0 0 6.4268    0.04       0   -9.84   0.322      -2   -27.4   15.83  -17.85     0       0       0       0  
LHEBOS51 144          0 0 119.42       0       0       0       0       0       0       0       0     0       0       0       0  
LHEART71 148          0 0 6.4266    0.04       0  -15.02   0.155      -4     -28   29.03  -22.65     0       0       0       0  
LHEART51 147          0 0 119.35    0.03       0       0       0       0       0       0       0     0       0       0       0  
LGROSU51 87           0 0 117.46 37.7339  10.204       0       0       0       0       0       0     0       0       0       0  
LGOTNA52 101          0 0 117.61       0       0       0       0       0       0       0       0     0       0       0       0  
LGOTNA51 100          0 0  117.3  24.947   5.327       0       0       0       0       0       0     0       0       0       0  
LGORIC51 33           0 0 123.49  19.573   1.973       0       0       0       0       0       0     0       0       0       0  
LFN9__2A FicYNode3wT  1 0  226.7    0.34       0       0       0       0       0       0       0     0       0       0       0  
LFN8__2A FicYNode3wT  1 0 227.56    0.29       0       0       0       0       0       0       0     0       0       0       0  
LFN7__2A FicYNode3wT  1 0 227.59     0.3       0       0       0       0       0       0       0     0       0       0       0  
LFN6__1A FicYNode3wT  1 0 400.59    0.24       0       0       0       0       0       0       0     0       0       0       0  
LFN5__1A FicYNode3wT  1 0 419.61    0.25       0       0       0       0       0       0       0     0       0       0       0  
LFN4__1A FicYNode3wT  1 0 419.56    0.25       0       0       0       0       0       0       0     0       0       0       0  
LFN3__2A FicYNode3wT  1 0    220       0       0       0       0       0       0       0       0     0       0       0       0  
LFN2__2A FicYNode3wT  1 0  239.7    1.61       0       0       0       0       0       0       0     0       0       0       0  
LFN1__1A FicYNode3wT  1 0 435.03    0.14       0       0       0       0       0       0       0     0       0       0       0  
LFN19_2A FicYNode3wT  1 0 247.37  103.76       0       0       0       0       0       0       0     0       0       0       0  
LFN18_2A FicYNode3wT  1 0 232.08  107.13       0       0       0       0       0       0       0     0       0       0       0  
LFN17_1A FicYNode3wT  1 0 414.08    1.15       0       0       0       0       0       0       0     0       0       0       0  
LFN16_1A FicYNode3wT  1 0 413.13    0.51       0       0       0       0       0       0       0     0       0       0       0  
LFN15_2A FicYNode3wT  1 0 231.93    0.34       0       0       0       0       0       0       0     0       0       0       0  
LFN14_2A FicYNode3wT  1 0 231.86     0.3       0       0       0       0       0       0       0     0       0       0       0  
LFN13_1A FicYNode3wT  1 0 397.43    0.22       0       0       0       0       0       0       0     0       0       0       0  
LFN12_1A FicYNode3wT  1 0 417.36    0.11       0       0       0       0       0       0       0     0       0       0       0  
LFN11_1A FicYNode3wT  1 0 419.58       1       0       0       0       0       0       0       0     0       0       0       0  
LFN10_2A FicYNode3wT  1 0 226.71    0.34       0       0       0       0       0       0       0     0       0       0       0  
LENPDI51 34           0 0 124.53   7.176   0.784       0       0       0       0       0       0     0       0       0       0  
LENPDE51 14           0 0 124.51   2.794   0.964       0       0       0       0       0       0     0       0       0       0  
LDRAVO51 287          0 0 120.46   1.865   1.052       0       0       0       0       0       0     0       0       0       0  
LDOMZA51 106          0 0 117.23  31.682  13.782       0       0       0       0       0       0     0       0       0       0  
LDOBRA71 57           0 0      0       0       0       0       0       0       0       0       0     0       0       0       0  
LDOBRA53 56           0 0    110       0       0       0       0       0       0       0       0     0       0       0       0  
LDOBRA52 55           0 0 120.04 21.7579   2.064       0       0       0       0       0       0     0       0       0       0  
LDOBRA51 54           0 0 120.59   3.515   0.368       0       0       0       0       0       0     0       0       0       0  
LDOBLA53 199          0 0    110       0       0       0       0       0       0       0       0     0       0       0       0  
LDOBLA52 198          0 0    110       0       0       0       0       0       0       0       0     0       0       0       0  
LDOBLA51 197          0 0    110       0       0       0       0       0       0       0       0     0       0       0       0  
LDIVAC74 28           0 0 11.419       0       0       0       0       0       0       0       0     0       0       0       0  
LDIVAC73 32           0 0      0       0       0       0       0       0       0       0       0     0       0       0       0  
LDIVAC72 27           0 0      0       0       0       0       0       0       0       0       0     0       0       0       0  
LDIVAC71 26           0 0  11.44       0       0       0       0       0       0       0       0     0       0       0       0  
LDIVAC52 24           0 0 124.53 7.39500    1.53       0       0       0       0       0       0     0       0       0       0  
LDIVAC51 25           0 0    110       0       0       0       0       0       0       0       0     0       0       0       0  
LDIVAC22 22           0 0 233.93    4.65       0       0       0       0       0       0       0     0       0       0       0  
LDIVAC21 23           0 0    220       0       0       0       0       0       0       0       0     0       0       0       0  
LDIVAC12 21           0 0 414.86    1.47       0       0       0       0       0       0       0     0       0       0       0  
LDIVAC11 20           0 0  419.9       2       0       0       0       0       0       0       0     0       0       0       0  
LDEKAN51 5            0 0  124.5  14.408  -0.146       0       0       0       0       0       0     0       0       0       0  
LCRNUC51 111          0 0 117.89  23.208    4.46       0       0       0       0       0       0     0       0       0       0  
LCRNOM51 103          0 0 117.06  10.688   3.418       0       0       0       0       0       0     0       0       0       0  
LCIRKO72 229          0 0 11.806       0       0       0       0       0       0       0       0     0       0       0       0  
LCIRKO71 228          0 0 11.077       0       0       0       0       0       0       0       0     0       0       0       0  
LCIRKO51 226          0 0 123.62  105.84       0       0       0       0       0       0       0     0       0       0       0  
LCIRKO21 227          0 0 222.78   89.38       0       0       0       0       0       0       0     0       0       0       0  
LCHEAV51 15           0 0 123.75    0.01       0       0       0       0       0       0       0     0       0       0       0  
LCERKN53 11           0 0    110       0       0       0       0       0       0       0       0     0       0       0       0  
LCERKN52 10           0 0 123.37   5.383   1.971       0       0       0       0       0       0     0       0       0       0  
LCERKN51 116          0 0 116.68  14.636   4.062       0       0       0       0       0       0     0       0       0       0  
LCENTE52 110          0 0 118.07  14.321    1.48       0       0       0       0       0       0     0       0       0       0  
LCENTE51 109          0 0 117.86 21.9389   3.514       0       0       0       0       0       0     0       0       0       0  
LBRSLJ51 99           0 0 117.75 26.1959    3.85       0       0       0       0       0       0     0       0       0       0  
LBREZI51 258          0 0 119.71  11.552   0.579       0       0       0       0       0       0     0       0       0       0  
LBREST77 286          0 0  12.49       0       0       0       0       0       0       0       0     0       0       0       0  
LBREST76 285          0 0  12.49       0       0       0       0       0       0       0       0     0       0       0       0  
LBREST75 284          0 0  11.48    0.86  -1.109       0       0       0       0       0       0     0       0       0       0  
LBREST74 283          0 0      0       0       0       0       0       0       0       0       0     0       0       0       0  
LBREST73 282          0 0      0       0       0       0       0       0       0       0       0     0       0       0       0  
LBREST72 281          0 0      0       0       0       0       0       0       0       0       0     0       0       0       0  
LBREST71 280          0 0      0       0       0       0       0       0       0       0       0     0       0       0       0  
LBREST55 279          0 0    110       0       0       0       0       0       0       0       0     0       0       0       0  
LBREST54 278          0 0    110       0       0       0       0       0       0       0       0     0       0       0       0  
LBREST53 277          0 0    110       0       0       0       0       0       0       0       0     0       0       0       0  
LBREST52 276          0 0    110       0       0       0       0       0       0       0       0     0       0       0       0  
LBREST51 275          0 0 119.48   7.963  -0.472       0       0       0       0       0       0     0       0       0       0  
LBREG 51 65           0 0 122.95  10.336   3.045       0       0       0       0       0       0     0       0       0       0  
LBOSTA51 145          0 0    110       0       0       0       0       0       0       0       0     0       0       0       0  
LBOHIN51 257          0 0 118.03   0.654  -1.178       0       0       0       0       0       0     0       0       0       0  
LBEZIG51 113          0 0 117.81 25.1399    4.43       0       0       0       0       0       0     0       0       0       0  
LBERIC73 83           0 0 10.861       0       0       0       0       0       0       0       0     0       0       0       0  
LBERIC72 82           0 0 10.862       0       0       0       0       0       0       0       0     0       0       0       0  
LBERIC71 81           0 0 31.546       0       0       0       0       0       0       0       0     0       0       0       0  
LBERIC51 79           0 0 118.32   1.212   0.542       0       0       0       0       0       0     0       0       0       0  
LBERIC21 80           0 0 230.48     0.6       0       0       0       0       0       0       0     0       0       0       0  
LBERIC11 78           0 0 416.63    3.34       0       0       0       0       0       0       0     0       0       0       0  
LAVCE 71 17           0 0      0       0       0       0       0       0       0       0       0     0       0       0       0  
LAVCE 51 16           0 0    110       0       0       0       0       0       0       0       0     0       0       0       0  
LAJDOV51 8            0 0 123.75   17.33   1.556       0       0       0       0       0       0     0       0       0       0  
##ZHR
HZERJA21 338          0 0 234.37    0.57       0       0       0       0       0       0       0     0       0       0       0  
HZERJA12 336          0 0 423.85 197.371  -8.813       0       0       0       0       0       0     0       0       0       0  
HZERJA11 337          0 0    400       0       0       0       0       0       0       0       0     0       0       0       0  
HZAKUC71 354          0 0      0       0       0       0       0       0       0       0       0     0       0       0       0  
HZAKUC21 353          0 0 251.41 -14.667 -16.224       0       0       0       0       0       0     0       0       0       0  
HVELEB11 389          0 2 424.95  -3.671 -18.134   14.85 152.979   14.85    -276     160    -100     0       0       0       0  
HTUMBR11 333          0 0 421.66 276.347 36.6129       0       0       0       0       0       0     0       0       0       0  
HTESIS21 386          0 2 242.96  72.841  12.102 -125.26  -0.905       6    -420       0    -300     0       0       0       0  
HTEPLO73 368          0 0 12.059       0       0       0       0       0       0       0       0     0       0       0       0  
HTEPLO72 367          0 0 12.027       0       0       0       0       0       0       0       0     0       0       0       0  
HTEPLO71 366          0 0 12.027       0       0       0       0       0       0       0       0     0       0       0       0  
HTEPLO52 364          0 0 131.65   19.77  -0.151       0       0       0       0       0       0     0       0       0       0  
HTEPLO51 363          0 0 131.25  56.507  -0.966       0       0       0       0       0       0     0       0       0       0  
HTEPLO21 365          0 2  241.5     0.3       0 -135.58 26.2129       3    -210      30    -150     0       0       0       0  
HSUSAK71 393          0 0      0       0       0       0       0       0       0       0       0     0       0       0       0  
HSUSAK51 392          0 0 128.41 16.0599  -0.817       0       0       0       0       0       0     0       0       0       0  
HSISAK71 387          0 0      0       0       0       0       0       0       0       0       0     0       0       0       0  
HSENJ 21 388          0 0 243.48 -82.971  30.139       0       0       0       0       0       0     0       0       0       0  
HRIJEK71 384          0 0      0       0       0       0       0       0       0       0       0     0       0       0       0  
HRIJEK51 381          0 0  128.2  22.698  -1.961       0       0       0       0       0       0     0       0       0       0  
HRIJEK22 383          0 0    220       0       0       0       0       0       0       0       0     0       0       0       0  
HRIJEK21 382          0 0 242.03       0       0       0       0       0       0       0       0     0       0       0       0  
HPOREC51 361          0 0 128.99  19.645  -6.478       0       0       0       0       0       0     0       0       0       0  
HPLOMI71 372          0 0      0       0       0       0       0       0       0       0       0     0       0       0       0  
HPLAT 21 391          0 0 245.14 -19.242 -25.021       0       0       0       0       0       0     0       0       0       0  
HPEHLI73 312          0 0   11.7       0       0       0       0       0       0       0       0     0       0       0       0  
HPEHLI72 311          0 0 11.701       0       0       0       0       0       0       0       0     0       0       0       0  
HPEHLI71 315          0 0      0       0       0       0       0       0       0       0       0     0       0       0       0  
HPEHLI51 309          0 0 128.03  25.832  -4.595       0       0       0       0       0       0     0       0       0       0  
HPEHLI21 310          0 0  241.5    1.33       0       0       0       0       0       0       0     0       0       0       0  
HPAZIN51 362          0 0 130.42  12.719   0.719       0       0       0       0       0       0     0       0       0       0  
HORLOV21 390          0 2 251.55    0.02       0   -1.02  -0.987       9    -237      90    -105     0       0       0       0  
HNEDEL51 335          0 0 121.34  40.022   3.707       0       0       0       0       0       0     0       0       0       0  
HMRACL21 347          0 0 239.53  90.373  -2.345       0       0       0       0       0       0     0       0       0       0  
HMELIN74 328          0 0      0       0       0       0       0       0       0       0       0     0       0       0       0  
HMELIN73 327          0 0 33.003       0       0       0       0       0       0       0       0     0       0       0       0  
HMELIN72 326          0 0 11.788       0       0       0       0       0       0       0       0     0       0       0       0  
HMELIN71 325          0 0      0       0       0       0       0       0       0       0       0     0       0       0       0  
HMELIN52 323          0 0 129.01  30.004 -59.433       0       0       0       0       0       0     0       0       0       0  
HMELIN51 324          0 0    110       0       0       0       0       0       0       0       0     0       0       0       0  
HMELIN24 319          0 0 242.03    0.11       0       0       0       0       0       0       0     0       0       0       0  
HMELIN23 322          0 0    220       0       0       0       0       0       0       0       0     0       0       0       0  
HMELIN22 321          0 0    220       0       0       0       0       0       0       0       0     0       0       0       0  
HMELIN21 320          0 0    220       0       0       0       0       0       0       0       0     0       0       0       0  
HMELIN13 316          0 0  425.2    0.39       0       0       0       0       0       0       0     0       0       0       0  
HMELIN12 318          0 0    400       0       0       0       0       0       0       0       0     0       0       0       0  
HMELIN11 317          0 0 419.01       0       0       0       0       0       0       0       0     0       0       0       0  
HMEDUR21 343          0 0 242.11  58.069  11.879       0       0       0       0       0       0     0       0       0       0  
HMATUL51 334          0 0 128.08  16.604  -0.236       0       0       0       0       0       0     0       0       0       0  
HLOVRA71 378          0 0      0       0       0       0       0       0       0       0       0     0       0       0       0  
HLOVRA51 377          0 0 128.91   2.089   1.275       0       0       0       0       0       0     0       0       0       0  
HKONJS72 358          0 0 34.221       0       0       0       0       0       0       0       0     0       0       0       0  
HKONJS71 357          0 0 34.221       0       0       0       0       0       0       0       0     0       0       0       0  
HKONJS21 356          0 0 251.11 -12.982 -14.205       0       0       0       0       0       0     0       0       0       0  
HKONJS11 355          0 0 434.99    0.31       0       0       0       0       0       0       0     0       0       0       0  
HKATOR51 306          0 0 126.77     6.2  -1.776       0       0       0       0       0       0     0       0       0       0  
HFN30_2A FicYNode3wT  1 0 252.66    0.18       0       0       0       0       0       0       0     0       0       0       0  
HFN29_2A FicYNode3wT  1 0 251.99    0.19       0       0       0       0       0       0       0     0       0       0       0  
HFN28_2A FicYNode3wT  1 0 251.99    0.19       0       0       0       0       0       0       0     0       0       0       0  
HFN27_1A FicYNode3wT  1 0 434.55     0.3       0       0       0       0       0       0       0     0       0       0       0  
HFN26_1A FicYNode3wT  1 0 434.55    0.31       0       0       0       0       0       0       0     0       0       0       0  
HFN25_2A FicYNode3wT  1 0    220       0       0       0       0       0       0       0       0     0       0       0       0  
HFN24_2A FicYNode3wT  1 0 246.98    0.17       0       0       0       0       0       0       0     0       0       0       0  
HFN23_1A FicYNode3wT  1 0    400       0       0       0       0       0       0       0       0     0       0       0       0  
HFN22_1A FicYNode3wT  1 0 419.08    0.29       0       0       0       0       0       0       0     0       0       0       0  
HFN21_2A FicYNode3wT  1 0 245.16    0.18       0       0       0       0       0       0       0     0       0       0       0  
HFN20_2A FicYNode3wT  1 0 245.15    0.18       0       0       0       0       0       0       0     0       0       0       0  
HERNES12 340          0 0    400       0       0       0       0       0       0       0       0     0       0       0       0  
HERNES11 339          0 0 416.88 195.803 80.7409       0       0       0       0       0       0     0       0       0       0  
HDUBRO21 351          0 2 245.05    0.09       0 -118.04  -5.723       3    -130      40     -50     0       0       0       0  
HDAKOV21 341          0 0 237.76  86.714 25.4599       0       0       0       0       0       0     0       0       0       0  
HBUZET71 375          0 0      0       0       0       0       0       0       0       0       0     0       0       0       0  
HBUZET52 374          0 0 130.39       0       0       0       0       0       0       0       0     0       0       0       0  
HBUZET51 373          0 0    110       0       0       0       0       0       0       0       0     0       0       0       0  
HBUTON51 376          0 0 130.38   7.138  -0.261       0       0       0       0       0       0     0       0       0       0  
HBUJE 52 308          0 0    110       0       0       0       0       0       0       0       0     0       0       0       0  
HBUJE 51 307          0 0 125.79  11.327  -1.042       0       0       0       0       0       0     0       0       0       0  
HBRINJ21 385          0 0 244.19 4.79500  -7.892       0       0       0       0       0       0     0       0       0       0  
HBILIC22 380          0 0 251.51       0       0       0       0       0       0       0       0     0       0       0       0  
HBILIC21 379          0 0 252.31  14.695  -12.94       0       0       0       0       0       0     0       0       0       0  
##ZBA
WZENIC21 582          0 0  241.8 106.613  29.497       0       0       0       0       0       0     0       0       0       0  
WVISEG71 560          0 0 32.259       0       0       0       0       0       0       0       0     0       0       0       0  
WVISEG21 559          0 0 236.24    0.06       0       0       0       0       0       0       0     0       0       0       0  
WVISEG11 558          0 0 418.69 -22.923  -7.214       0       0       0       0       0       0     0       0       0       0  
WUGLJE11 557          0 2  418.1 96.7999  47.282 -254.89   0.999       3    -280      80    -180     0       0       0       0  
WTUZLA22 580          0 0    220       0       0       0       0       0       0       0       0     0       0       0       0  
WTUZLA21 579          0 0 241.61 107.474  25.888       0       0       0       0       0       0     0       0       0       0  
WTUZLA12 578          0 0 421.47    1.37       0       0       0       0       0       0       0     0       0       0       0  
WTUZLA11 577          0 0    400       0       0       0       0       0       0       0       0     0       0       0       0  
WTREBI21 567          0 0 244.62  -55.07  17.292       0       0       0       0       0       0     0       0       0       0  
WTREBI11 566          0 0 428.63     0.3       0       0       0       0       0       0       0     0       0       0       0  
WTETUZ22 584          0 2 241.82    0.23       0 -183.96   8.697       3    -280      80    -180     0       0       0       0  
WTETUZ21 583          0 2  241.5  57.126  15.872 -314.07       0       6    -420       0    -300     0       0       0       0  
WTEKAK21 585          0 2 243.17    0.27       0 -205.17  24.589       3    -220      30    -150     0       0       0       0  
WSTANA11 586          0 2 421.26    0.66       0 -276.11   9.212       3    -280      80    -180     0       0       0       0  
WSARAJ21 569          0 0 235.63    0.02       0       0       0       0       0       0       0     0       0       0       0  
WSARAJ12 568          0 0 425.89  49.861   26.33       0       0       0       0       0       0     0       0       0       0  
WSARAJ11 574          0 0    426  55.062 33.8139       0       0       0       0       0       0     0       0       0       0  
WPRIJE21 556          0 0 242.52  27.835 28.4279       0       0       0       0       0       0     0       0       0       0  
WMOSTA71 564          0 0      0       0       0       0       0       0       0       0       0     0       0       0       0  
WMOSTA22 563          0 0 245.49  26.771   7.542       0       0       0       0       0       0     0       0       0       0  
WMOSTA21 571          0 0  245.2  56.887  96.425       0       0       0       0       0       0     0       0       0       0  
WMOSTA11 562          0 0 429.88    0.26       0       0       0       0       0       0       0     0       0       0       0  
WKAKAN21 572          0 0 243.59  86.848 -35.539       0       0       0       0       0       0     0       0       0       0  
WJAJCE21 581          0 0 241.09 28.1279  37.903       0       0       0       0       0       0     0       0       0       0  
WJABLA21 573          0 0 244.49 -146.89  19.264       0       0       0       0       0       0     0       0       0       0  
WGRADA21 565          0 0 238.57  69.419  21.252       0       0       0       0       0       0     0       0       0       0  
WGACKO11 570          0 2 429.57    0.16       0    0.57     0.5       3    -280      80    -180     0       0       0       0  
WFN43_1A FicYNode3wT  1 0 409.63    0.08       0       0       0       0       0       0       0     0       0       0       0  
WBIHAC21 575          0 0 242.44  22.048   1.883       0       0       0       0       0       0     0       0       0       0  
WBANJA11 576          0 0 418.96 246.414  42.174       0       0       0       0       0       0     0       0       0       0  
##ZAT
OZURND11 444          0 0 416.15  -10.63 -75.525       0       0       0       0       0       0     0       0       0       0  
OZELTW21 476          0 0 233.24  47.358  -9.142       0       0       0       0       0       0     0       0       0       0  
OZELL 72 454          0 0 30.971       0       0       0       0       0       0       0       0     0       0       0       0  
OZELL 71 453          0 0 30.971       0       0       0       0       0       0       0       0     0       0       0       0  
OZELL 21 452          0 0 228.06 -858.88  79.829       0       0       0       0       0       0     0       0       0       0  
OZELL 11 451          0 2 407.73    0.14       0  -60.52 -16.497       3    -200    5000   -5000     0       0       0       0  
OWIENS73 421          0 0      0       0       0       0       0       0       0       0       0     0       0       0       0  
OWIENS72 418          0 0 30.573       0       0       0       0       0       0       0       0     0       0       0       0  
OWIENS71 417          0 0 30.573       0       0       0       0       0       0       0       0     0       0       0       0  
OWIENS21 416          0 0 233.22 229.306 68.6819       0       0       0       0       0       0     0       0       0       0  
OWIENS11 415          0 0 413.67 -962.16 219.466       0       0       0       0       0       0     0       0       0       0  
OWESTT71 464          0 0 31.926       0       0       0       0       0       0       0       0     0       0       0       0  
OWESTT22 462          0 0    220       0       0       0       0       0       0       0       0     0       0       0       0  
OWESTT21 461          0 0 235.73  -168.6  44.604       0       0       0       0       0       0     0       0       0       0  
OWESTT11 463          0 0 417.33    0.56       0       0       0       0       0       0       0     0       0       0       0  
OWEISS21 426          0 0  232.5 113.142 -27.801       0       0       0       0       0       0     0       0       0       0  
OVSS_V22 472          0 0  231.7    0.49       0       0       0       0       0       0       0     0       0       0       0  
OVSS_V21 471          0 0  231.7    0.49       0       0       0       0       0       0       0     0       0       0       0  
OVSS_K12 469          0 0 415.28    0.01       0       0       0       0       0       0       0     0       0       0       0  
OVSS_K11 468          0 0 415.09       0       0       0       0       0       0       0       0     0       0       0       0  
OVILL 71 475          0 0      0       0       0       0       0       0       0       0       0     0       0       0       0  
OVILL 22 474          0 0  231.7       0       0       0       0       0       0       0       0     0       0       0       0  
OVILL 21 473          0 0  231.7       0       0       0       0       0       0       0       0     0       0       0       0  
OTHAUR21 458          0 0 230.29 150.487  86.902       0       0       0       0       0       0     0       0       0       0  
OTERNI71 414          0 0      0       0       0       0       0       0       0       0       0     0       0       0       0  
OTERNI22 413          0 0  231.5 67.4649   -8.01       0       0       0       0       0       0     0       0       0       0  
OTERNI21 412          0 0 230.86 204.239  34.458       0       0       0       0       0       0     0       0       0       0  
OTAUER73 442          0 0      0       0       0       0       0       0       0       0       0     0       0       0       0  
OTAUER72 439          0 0 30.487       0       0       0       0       0       0       0       0     0       0       0       0  
OTAUER71 438          0 0 30.487       0       0       0       0       0       0       0       0     0       0       0       0  
OTAUER22 437          0 0    232   12.74       0       0       0       0       0       0       0     0       0       0       0  
OTAUER21 436          0 0 232.13   11.65       0       0       0       0       0       0       0     0       0       0       0  
OTAUER11 435          0 0 406.94    1.54       0       0       0       0       0       0       0     0       0       0       0  
OSUDBU11 423          0 0 414.35 73.9049 72.5059       0       0       0       0       0       0     0       0       0       0  
OSTRAS21 457          0 0 228.29 152.756 21.7199       0       0       0       0       0       0     0       0       0       0  
OSILZ 22 460          0 0    220       0       0       0       0       0       0       0       0     0       0       0       0  
OSILZ 21 459          0 2 236.69    0.14       0 -132.25   0.542    9999   -9999    9999   -9999     0       0       0       0  
OSCHWA11 477          0 0 407.25 -14.272  -2.373       0       0       0       0       0       0     0       0       0       0  
OSARAS11 443          0 0  415.2 -6.2560 20.7029       0       0       0       0       0       0     0       0       0       0  
OSALZB21 449          0 0 227.03 393.456 -43.587       0       0       0       0       0       0     0       0       0       0  
OSALZB11 450          0 0 412.78       0       0       0       0       0       0       0       0     0       0       0       0  
OROSEG21 409          0 2 228.53    0.17       0 459.589     -48 459.589     -80      16     -48     0       0       0       0  
OOSTST11 424          0 0 416.16 152.154 -11.479       0       0       0       0       0       0     0       0       0       0  
OOBERS74 404          0 0      0       0       0       0       0       0       0       0       0     0       0       0       0  
OOBERS73 400          0 0 30.451       0       0       0       0       0       0       0       0     0       0       0       0  
OOBERS72 399          0 0 30.451       0       0       0       0       0       0       0       0     0       0       0       0  
OOBERS71 398          0 0 30.451       0       0       0       0       0       0       0       0     0       0       0       0  
...